/*--------------------------------*- C++ -*----------------------------------*\
| =========                 |                                                 |
| \\      /  F ield         | OpenFOAM: The Open Source CFD Toolbox           |
|  \\    /   O peration     | Version:  avalanche                             |
|   \\  /    A nd           | https://develop.openfoam.com/Community/avalanche|
|    \\/     M anipulation  |                                                 |
\*---------------------------------------------------------------------------*/
FoamFile
{
    version     2.0;
    format      ascii;
    class       dictionary;
    object      transportProperties;
}
// * * * * * * * * * * * * * * * * * * * * * * * * * * * * * * * * * * * * * //

pressureFeedback    off;

explicitDryAreas    on;

xi                  xi     [ 0 0 0 0 0 0 0]     1;

hmin                hmin   [ 0 1 0 0 0 0 0]     0;

rho                 rho    [ 1 -3  0 0 0 0 0 ]  1500.;

u0                  u0     [ 0 1 -1 0 0 0 0]    1e-4;

h0                  h0     [ 0 1 0 0 0 0 0]     1e-6;

frictionModel       Voellmy;

entrainmentModel    entrainmentOff;

depositionModel     depositionOff;

VoellmyCoeffs
{
    mu              mu    [0 0 0 0 0 0 0 ]      0.26;

    xi              xi    [0 1 -2 0 0 0 0 ]     2500;
}

// ************************************************************************* //
